CPDS_validation_cosim/Distribution/Bus11/IEEE34Bus/ieee34-1_VLN_Node_50.Txt

LINE-GROUND and LINE-LINE VOLTAGES BY BUS & NODE

Bus       Node    VLN (kV)   Angle      pu     Base kV    Node-Node   VLL (kV)  Angle      pu

SOURCEBUS 1       41.829 /_    0.0      1.05    69.000        1-2      72.45 /_   30.0      1.05
   -      2       41.829 /_ -120.0      1.05    69.000        2-3      72.45 /_  -90.0      1.05
   -      3       41.829 /_  120.0      1.05    69.000        3-1      72.45 /_  150.0      1.05
800 ..... 1       15.095 /_  -30.0      1.05    24.900        1-2     26.145 /_    0.0      1.05
   -      2       15.095 /_ -150.0      1.05    24.900        2-3     26.145 /_ -120.0      1.05
   -      3       15.095 /_   90.0      1.05    24.900        3-1     26.145 /_  120.0      1.05
802 ..... 1       15.059 /_  -30.1    1.0475    24.900        1-2     26.097 /_    0.0    1.0481
   -      2       15.075 /_ -150.1    1.0486    24.900        2-3     26.106 /_ -120.1    1.0485
   -      3       15.071 /_   89.9    1.0484    24.900        3-1     26.094 /_  119.9     1.048
806 ..... 1       15.035 /_  -30.1    1.0459    24.900        1-2     26.066 /_   -0.1    1.0468
   -      2       15.062 /_ -150.1    1.0477    24.900        2-3     26.082 /_ -120.1    1.0475
   -      3       15.056 /_   89.9    1.0473    24.900        3-1     26.061 /_  119.9    1.0466
808 ..... 1       14.587 /_  -30.8    1.0147    24.900        1-2     25.484 /_   -0.5    1.0235
   -      2       14.839 /_ -150.8    1.0322    24.900        2-3     25.633 /_ -120.8    1.0294
   -      3       14.776 /_   89.3    1.0278    24.900        3-1     25.443 /_  119.0    1.0218
810 ..... 2       14.837 /_ -150.8    1.0321    24.900
812 ..... 1       14.066 /_  -31.7   0.97841    24.900        1-2     24.813 /_   -1.1    0.9965
   -      2       14.595 /_ -151.6    1.0152    24.900        2-3     25.123 /_ -121.7     1.009
   -      3       14.445 /_   88.6    1.0048    24.900        3-1     24.727 /_  118.0   0.99304
814 ..... 1       13.652 /_  -32.5   0.94965    24.900        1-2     24.278 /_   -1.5   0.97501
   -      2       14.401 /_ -152.3    1.0017    24.900        2-3     24.719 /_ -122.4   0.99272
   -      3       14.182 /_   88.0   0.98648    24.900        3-1     24.159 /_  117.1   0.97026
814R .... 1       14.758 /_  -32.5    1.0266    24.900        1-2     25.463 /_   -2.5    1.0226
   -      2       14.669 /_ -152.3    1.0204    24.900        2-3     25.409 /_ -122.1    1.0204
   -      3       14.712 /_   88.0    1.0234    24.900        3-1     25.578 /_  117.8    1.0272
850 ..... 1       14.758 /_  -32.5    1.0266    24.900        1-2     25.463 /_   -2.5    1.0226
   -      2       14.669 /_ -152.3    1.0204    24.900        2-3     25.409 /_ -122.1    1.0204
   -      3       14.712 /_   88.0    1.0233    24.900        3-1     25.578 /_  117.8    1.0272
816 ..... 1       14.752 /_  -32.5    1.0262    24.900        1-2     25.455 /_   -2.5    1.0223
   -      2       14.665 /_ -152.3    1.0201    24.900        2-3     25.402 /_ -122.1    1.0202
   -      3       14.708 /_   88.0    1.0231    24.900        3-1      25.57 /_  117.8    1.0269
818 ..... 1       14.739 /_  -32.5    1.0252    24.900
824 ..... 1       14.624 /_  -32.6    1.0172    24.900        1-2     25.239 /_   -2.7    1.0136
   -      2       14.529 /_ -152.6    1.0106    24.900        2-3     25.182 /_ -122.4    1.0113
   -      3       14.587 /_   87.7    1.0147    24.900        3-1     25.337 /_  117.6    1.0176
820 ..... 1       14.401 /_  -32.5    1.0017    24.900
822 ..... 1       14.358 /_  -32.6   0.99871    24.900
826 ..... 2       14.526 /_ -152.6    1.0104    24.900
828 ..... 1       14.613 /_  -32.6    1.0165    24.900        1-2     25.222 /_   -2.7    1.0129
   -      2       14.519 /_ -152.6    1.0099    24.900        2-3     25.165 /_ -122.4    1.0106
   -      3       14.577 /_   87.7     1.014    24.900        3-1     25.318 /_  117.6    1.0168
830 ..... 1       14.359 /_  -32.9   0.99878    24.900        1-2     24.812 /_   -3.0   0.99646
   -      2       14.274 /_ -153.0   0.99289    24.900        2-3     24.747 /_ -122.8   0.99387
   -      3       14.331 /_   87.2   0.99689    24.900        3-1     24.856 /_  117.2   0.99824
854 ..... 1       14.352 /_  -32.9   0.99835    24.900        1-2     24.802 /_   -3.1   0.99605
   -      2       14.268 /_ -153.0   0.99247    24.900        2-3     24.737 /_ -122.9   0.99346
   -      3       14.325 /_   87.2   0.99647    24.900        3-1     24.845 /_  117.2   0.99778
832 ..... 1       15.041 /_  -33.4    1.0462    24.900        1-2     25.967 /_   -3.8    1.0429
   -      2       14.878 /_ -153.8    1.0349    24.900        2-3     25.887 /_ -123.6    1.0397
   -      3       15.025 /_   86.2    1.0451    24.900        3-1      25.99 /_  116.4    1.0438
858 ..... 1       15.007 /_  -33.4    1.0439    24.900        1-2     25.914 /_   -3.9    1.0407
   -      2       14.845 /_ -153.9    1.0326    24.900        2-3     25.833 /_ -123.7    1.0375
   -      3       14.993 /_   86.1    1.0429    24.900        3-1     25.927 /_  116.4    1.0413
834 ..... 1       14.969 /_  -33.5    1.0412    24.900        1-2     25.851 /_   -4.0    1.0382
   -      2       14.806 /_ -154.0    1.0299    24.900        2-3     25.771 /_ -123.8     1.035
   -      3       14.957 /_   86.0    1.0404    24.900        3-1     25.855 /_  116.3    1.0384
860 ..... 1       14.963 /_  -33.5    1.0408    24.900        1-2     25.842 /_   -3.9    1.0378
   -      2         14.8 /_ -154.0    1.0295    24.900        2-3     25.762 /_ -123.8    1.0346
   -      3       14.952 /_   86.0      1.04    24.900        3-1     25.844 /_  116.3    1.0379
842 ..... 1       14.968 /_  -33.5    1.0412    24.900        1-2      25.85 /_   -4.0    1.0382
   -      2       14.805 /_ -154.0    1.0299    24.900        2-3      25.77 /_ -123.8    1.0349
   -      3       14.956 /_   86.0    1.0404    24.900        3-1     25.854 /_  116.3    1.0383
836 ..... 1        14.96 /_  -33.5    1.0406    24.900        1-2     25.835 /_   -3.9    1.0375
   -      2       14.795 /_ -154.0    1.0291    24.900        2-3     25.755 /_ -123.8    1.0343
   -      3        14.95 /_   86.0    1.0399    24.900        3-1     25.839 /_  116.3    1.0377
840 ..... 1       14.959 /_  -33.5    1.0406    24.900        1-2     25.834 /_   -3.9    1.0375
   -      2       14.794 /_ -154.0    1.0291    24.900        2-3     25.754 /_ -123.8    1.0343
   -      3       14.949 /_   86.0    1.0399    24.900        3-1     25.839 /_  116.3    1.0377
862 ..... 1        14.96 /_  -33.5    1.0406    24.900        1-2     25.835 /_   -3.9    1.0375
   -      2       14.794 /_ -154.0    1.0291    24.900        2-3     25.755 /_ -123.8    1.0343
   -      3        14.95 /_   86.0    1.0399    24.900        3-1     25.839 /_  116.3    1.0377
844 ..... 1       14.965 /_  -33.5     1.041    24.900        1-2     25.844 /_   -4.0    1.0379
   -      2       14.801 /_ -154.1    1.0295    24.900        2-3     25.763 /_ -123.9    1.0347
   -      3       14.953 /_   86.0    1.0401    24.900        3-1     25.848 /_  116.2    1.0381
846 ..... 1       14.969 /_  -33.6    1.0413    24.900        1-2     25.847 /_   -4.0     1.038
   -      2         14.8 /_ -154.1    1.0295    24.900        2-3     25.767 /_ -123.9    1.0348
   -      3       14.957 /_   85.9    1.0404    24.900        3-1     25.854 /_  116.2    1.0383
848 ..... 1        14.97 /_  -33.6    1.0413    24.900        1-2     25.848 /_   -4.0    1.0381
   -      2       14.801 /_ -154.1    1.0295    24.900        2-3     25.768 /_ -123.9    1.0349
   -      3       14.958 /_   85.9    1.0405    24.900        3-1     25.855 /_  116.2    1.0383
852R .... 1       15.041 /_  -33.4    1.0462    24.900        1-2     25.968 /_   -3.8    1.0429
   -      2       14.878 /_ -153.8    1.0349    24.900        2-3     25.888 /_ -123.6    1.0397
   -      3       15.025 /_   86.3    1.0451    24.900        3-1      25.99 /_  116.4    1.0438
888 ..... 1       2.4256 /_  -34.9    1.0099     4.160        1-2     4.1877 /_   -5.3    1.0067
   -      2       2.3987 /_ -155.4   0.99873     4.160        2-3     4.1742 /_ -125.1    1.0034
   -      3       2.4235 /_   84.7     1.009     4.160        3-1     4.1916 /_  114.9    1.0076
856 ..... 2       14.266 /_ -153.0   0.99238    24.900
852 ..... 1       13.912 /_  -33.4   0.96776    24.900        1-2     24.089 /_   -3.7   0.96741
   -      2       13.842 /_ -153.8   0.96286    24.900        2-3     24.014 /_ -123.7   0.96443
   -      3       13.897 /_   86.3    0.9667    24.900        3-1      24.04 /_  116.5   0.96546
864 ..... 1       15.007 /_  -33.4    1.0439    24.900
838 ..... 2       14.792 /_ -154.0    1.0289    24.900
890 ..... 1       2.2266 /_  -35.5   0.92706     4.160        1-2     3.8681 /_   -6.0   0.92982
   -      2       2.2194 /_ -156.4   0.92405     4.160        2-3     3.8441 /_ -126.2   0.92407
   -      3       2.2255 /_   83.9    0.9266     4.160        3-1     3.8429 /_  114.2   0.92377
